! -----------------------------------------------------------------------------
! Acknowledgement: These building energy models were created under funding from 
! the US Department of Energy’s Building Technologies Office for providing energy 
! analyses in support of the federal rulemaking process for updating the Energy 
! Conservation Standards for Manufactured Housing. All assumptions and details 
! related to energy modeling, including software, climate locations and overall 
! modeling methodology are detailed in Chapter 7 of the Technical Support Document 
! associated with the Final Rule. This document was published in May 2022 and can 
! be accessed from the rule docket (EERE-2009-BT-BC-0021).
! -----------------------------------------------------------------------------



!-   ===========  ALL OBJECTS IN CLASS: VERSION ===========

Version,
    8.0;                     !- Version Identifier
    
!-   ===========  ALL OBJECTS IN CLASS: GLOBALGEOMETRYRULES ===========

GlobalGeometryRules,
    LowerLeftCorner,         !- Starting Vertex Position
    Counterclockwise,        !- Vertex Entry Direction
    Relative;                !- Coordinate System


 






  BuildingSurface:Detailed,
    ceiling_unit1,  !- Name
    Ceiling,  !- Surface Type
    Interior Ceiling,  !- Construction Name
    living_unit1,  !- Zone Name
    Zone,  !- Outside Boundary Condition
    attic_unit1,  !- Outside Boundary Condition Object
    NoSun,  !- Sun Exposure
    NoWind,  !- Wind Exposure
    0.0,  !- View Factor to Ground
    4,  !- Number of Vertices
    0,0,2.4390243902439,17.0719013037914,0,2.4390243902439,17.0719013037914,8.53595065189569,2.4390243902439,0,8.53595065189569,2.4390243902439;
    

!-   ===========  ALL OBJECTS IN CLASS: ZONE ===========
 
  Zone,
    living_unit1,  !- Name
    0.0,  !- Direction of Relative North {deg}
    0.0,  !- X Origin {m}
    0.0,  !- Y Origin {m}
    0.0,  !- Z Origin {m}
    ,  	  !- Type
    1;    !- Multiplier

  Zone,
    attic_unit1,  !- Name
    0.0,  !- Direction of Relative North {deg}
    0.0,  !- X Origin {m}
    0.0,  !- Y Origin {m}
    0.0,  !- Z Origin {m}
    ,     !- Type
    1;    !- Multiplier 
    
    
  Zone,
    crawlspace_unit1,  !- Name
    0.0,  !- Direction of Relative North {deg}
    0.0,  !- X Origin {m}
    0.0,  !- Y Origin {m}
    0.0,  !- Z Origin {m}
    ,     !- Type
    1;    !- Multiplier
    


  InternalMass,
    Internalmass_unit1,  !- Name
    InteriorFurnishings,     !- Construction Name
    living_unit1,                 !- Zone Name
    6.53063472394327;                !- Surface Area {m2}

  BuildingSurface:Detailed,
    Roof_front_unit1,  !- Name
    Roof,  !- Surface Type
    Exterior Roof,  !- Construction Name
    attic_unit1,  !- Zone Name
    Outdoors,  !- Outside Boundary Condition
    ,  !- Outside Boundary Condition Object
    SunExposed,  !- Sun Exposure
    WindExposed,  !- Wind Exposure
    0.0,  !- View Factor to Ground
    4,  !- Number of Vertices
    0,0,2.4390243902439,17.0719013037914,0,2.4390243902439,17.0719013037914,4.26797532594785,3.10603662843565,0,4.26797532594785,3.10603662843565;

  BuildingSurface:Detailed,
    Roof_back_unit1,  !- Name
    Roof,  !- Surface Type
    Exterior Roof,  !- Construction Name
    attic_unit1,  !- Zone Name
    Outdoors,  !- Outside Boundary Condition
    ,  !- Outside Boundary Condition Object
    SunExposed,  !- Sun Exposure
    WindExposed,  !- Wind Exposure
    0.0,  !- View Factor to Ground
    4,  !- Number of Vertices
    17.0719013037914,8.53595065189569,2.4390243902439,0,8.53595065189569,2.4390243902439,0,4.26797532594785,3.10603662843565,17.0719013037914,4.26797532594785,3.10603662843565;

  BuildingSurface:Detailed,
    Roof_right_unit1,  !- Name
    Wall,  !- Surface Type
    Gable_end,  !- Construction Name
    attic_unit1,  !- Zone Name
    Outdoors,  !- Outside Boundary Condition
    ,  !- Outside Boundary Condition Object
    SunExposed,  !- Sun Exposure
    WindExposed,  !- Wind Exposure
    ,  !- View Factor to Ground
    3,  !- Number of Vertices
    17.0719013037914,0,2.4390243902439,17.0719013037914,8.53595065189569,2.4390243902439,17.0719013037914,4.26797532594785,3.10603662843565;

  BuildingSurface:Detailed,
    Roof_left_unit1,  !- Name
    Wall,  !- Surface Type
    Gable_end,  !- Construction Name
    attic_unit1,  !- Zone Name
    Outdoors,  !- Outside Boundary Condition
    ,  !- Outside Boundary Condition Object
    SunExposed,  !- Sun Exposure
    WindExposed,  !- Wind Exposure
    ,  !- View Factor to Ground
    3,  !- Number of Vertices
    0,8.53595065189569,2.4390243902439,0,0,2.4390243902439,0,4.26797532594785,3.10603662843565;
    

BuildingSurface:Detailed,
    Wall_ldf_1.unit1,                   !- Name
    Wall,                    !- Surface Type
    Exterior Wall,           !- Construction Name
    living_unit1,                  !- Zone Name
    Outdoors,                !- Outside Boundary Condition
    ,                        !- Outside Boundary Condition Object
    SunExposed,              !- Sun Exposure
    WindExposed,             !- Wind Exposure
    ,                        !- View Factor to Ground
    4,                       !- Number of Vertices
    0,0,0.152439024390244,17.0719013037914,0,0.152439024390244,17.0719013037914,0,2.4390243902439,0,0,2.4390243902439;

BuildingSurface:Detailed,
    Wall_sdr_1.unit1,                   !- Name
    Wall,                    !- Surface Type
    Exterior Wall,           !- Construction Name
    living_unit1,                  !- Zone Name
    Outdoors,                !- Outside Boundary Condition
    ,                        !- Outside Boundary Condition Object
    SunExposed,              !- Sun Exposure
    WindExposed,             !- Wind Exposure
    ,                        !- View Factor to Ground
    4,                       !- Number of Vertices
    17.0719013037914,0,0.152439024390244,17.0719013037914,8.53595065189569,0.152439024390244,17.0719013037914,8.53595065189569,2.4390243902439,17.0719013037914,0,2.4390243902439;

BuildingSurface:Detailed,
    Wall_ldb_1.unit1,                   !- Name
    Wall,                    !- Surface Type
    Exterior Wall,           !- Construction Name
    living_unit1,                  !- Zone Name
    Outdoors,                !- Outside Boundary Condition
    ,                        !- Outside Boundary Condition Object
    SunExposed,              !- Sun Exposure
    WindExposed,             !- Wind Exposure
    ,                        !- View Factor to Ground
    4,                       !- Number of Vertices
    17.0719013037914,8.53595065189569,0.152439024390244,0,8.53595065189569,0.152439024390244,0,8.53595065189569,2.4390243902439,17.0719013037914,8.53595065189569,2.4390243902439;

BuildingSurface:Detailed,
    Wall_sdl_1.unit1,                   !- Name
    Wall,                    !- Surface Type
    Exterior Wall,           !- Construction Name
    living_unit1,                  !- Zone Name
    Outdoors,                !- Outside Boundary Condition
    ,                        !- Outside Boundary Condition Object
    SunExposed,              !- Sun Exposure
    WindExposed,             !- Wind Exposure
    ,                        !- View Factor to Ground
    4,                       !- Number of Vertices
    0,8.53595065189569,0.152439024390244,0,0,0.152439024390244,0,0,2.4390243902439,0,8.53595065189569,2.4390243902439;
    
Window,
    Window_ldf_1.unit1,	!- Name
    Exterior Window,  !- Construction Name
    Wall_ldf_1.unit1,	!- Building Surface Name
    Shades,	!- Shading Control Name August 28, 2014
    ,		!- Frame and divider Name
    1,		!- Multiplier
    1.78385554965481,	!- Starting X coordinate
    0.914634146341463,	!- Starting Z coordinate
    3.58483271375465,	!- Length
    1.21951219512195;	!- Height
    
Window,
    Window_ldb_1.unit1,	!- Name
    Exterior Window,  !- Construction Name
    Wall_ldb_1.unit1,	!- Building Surface Name
    Shades,	!- Shading Control Name August 28, 2014
    ,		!- Frame and divider Name
    1,		!- Multiplier
    1.78385554965481,	!- Starting X coordinate
    0.914634146341463,	!- Starting Z coordinate
    3.58483271375465,	!- Length
    1.21951219512195;	!- Height

Window,
    Window_sdr_1.unit1,	!- Name
    Exterior Window,  !- Construction Name
    Wall_sdr_1.unit1,	!- Building Surface Name
    Shades,	!- Shading Control Name August 28, 2014
    ,		!- Frame and divider Name
    1,		!- Multiplier
    1,	!- Starting X coordinate
    0.914634146341463,	!- Starting Z coordinate
    3.58483271375465,	!- Length
    1.21951219512195;	!- Height


Window,
    Window_sdl_1.unit1,	!- Name
    Exterior Window,  !- Construction Name
    Wall_sdl_1.unit1,	!- Building Surface Name
    Shades,	!- Shading Control Name August 28, 2014
    ,		!- Frame and divider Name
    1,		!- Multiplier
    1,	!- Starting X coordinate
    0.914634146341463,	!- Starting Z coordinate
    3.58483271375465,	!- Length
    1.21951219512195;	!- Height


BuildingSurface:Detailed,
    Floor_unit1,  !- Name
    Floor,  !- Surface Type
    Exterior Floor,  !- Construction Name
    living_unit1,  !- Zone Name
    Zone,  !- Outside Boundary Condition
    crawlspace_unit1,  !- Outside Boundary Condition Object
    NoSun,  !- Sun Exposure
    NoWind,  !- Wind Exposure
    0.0,  !- View Factor to Ground
    4,  !- Number of Vertices
    0,0,0.152439024390244,0,8.53595065189569,0.152439024390244,17.0719013037914,8.53595065189569,0.152439024390244,17.0719013037914,0,0.152439024390244;    
    
BuildingSurface:Detailed,
    BGWall_upper_ldf,                  !- Name
    Wall,                    !- Surface Type
    Crawl Wall,           !- Construction Name
    crawlspace_unit1,              !- Zone Name
    Outdoors,                !- Outside Boundary Condition
    ,                        !- Outside Boundary Condition Object
    SunExposed,              !- Sun Exposure
    WindExposed,             !- Wind Exposure
    ,                        !- View Factor to Ground
    4,                       !- Number of Vertices
    0,0,0,17.0719013037914,0,0,17.0719013037914,0,0.152439024390244,0,0,0.152439024390244;

BuildingSurface:Detailed,
    BGWall_lower_ldf,                  !- Name
    Wall,                    !- Surface Type
    Crawl Wall,           !- Construction Name
    crawlspace_unit1,              !- Zone Name
    GroundSlabPreprocessorAverage,                !- Outside Boundary Condition
    ,                        !- Outside Boundary Condition Object
    NoSun,  		     !- Sun Exposure
    NoWind,       	     !- Wind Exposure
    ,                        !- View Factor to Ground
    4,                       !- Number of Vertices
    0,0,-0.457317073170732,17.0719013037914,0,-0.457317073170732,17.0719013037914,0,0,0,0,0;
    
BuildingSurface:Detailed,
    BGWall_upper_sdr,                  !- Name
    Wall,                    !- Surface Type
    Crawl Wall,           !- Construction Name
    crawlspace_unit1,              !- Zone Name
    Outdoors,                !- Outside Boundary Condition
    ,                        !- Outside Boundary Condition Object
    SunExposed,              !- Sun Exposure
    WindExposed,             !- Wind Exposure
    ,                        !- View Factor to Ground
    4,                       !- Number of Vertices
    17.0719013037914,0,0,17.0719013037914,8.53595065189569,0,17.0719013037914,8.53595065189569,0.152439024390244,17.0719013037914,0,0.152439024390244;
    
BuildingSurface:Detailed,
    BGWall_lower_sdr,                  !- Name
    Wall,                    !- Surface Type
    Crawl Wall,           !- Construction Name
    crawlspace_unit1,              !- Zone Name
    GroundSlabPreprocessorAverage,                !- Outside Boundary Condition
    ,                        !- Outside Boundary Condition Object
    NoSun,  !- Sun Exposure
    NoWind,  !- Wind Exposure
    ,                        !- View Factor to Ground
    4,                       !- Number of Vertices
    17.0719013037914,0,-0.457317073170732,17.0719013037914,8.53595065189569,-0.457317073170732,17.0719013037914,8.53595065189569,0,17.0719013037914,0,0;
        
BuildingSurface:Detailed,
    BGWall_upper_ldb,                  !- Name
    Wall,                    !- Surface Type
    Crawl Wall,           !- Construction Name
    crawlspace_unit1,              !- Zone Name
    Outdoors,                !- Outside Boundary Condition
    ,                        !- Outside Boundary Condition Object
    SunExposed,              !- Sun Exposure
    WindExposed,             !- Wind Exposure
    ,                        !- View Factor to Ground
    4,                       !- Number of Vertices
    17.0719013037914,8.53595065189569,0,0,8.53595065189569,0,0,8.53595065189569,0.152439024390244,17.0719013037914,8.53595065189569,0.152439024390244;
    
BuildingSurface:Detailed,
    BGWall_lower_ldb,                  !- Name
    Wall,                    !- Surface Type
    Crawl Wall,           !- Construction Name
    crawlspace_unit1,              !- Zone Name
    GroundSlabPreprocessorAverage,                !- Outside Boundary Condition
    ,                        !- Outside Boundary Condition Object
    NoSun,  !- Sun Exposure
    NoWind,  !- Wind Exposure
    ,                        !- View Factor to Ground
    4,                       !- Number of Vertices
    17.0719013037914,8.53595065189569,-0.457317073170732,0,8.53595065189569,-0.457317073170732,0,8.53595065189569,0,17.0719013037914,8.53595065189569,0;

BuildingSurface:Detailed,
    BGWall_upper_sdl,                  !- Name
    Wall,                    !- Surface Type
    Crawl Wall,           !- Construction Name
    crawlspace_unit1,              !- Zone Name
    Outdoors,                !- Outside Boundary Condition
    ,                        !- Outside Boundary Condition Object
    SunExposed,              !- Sun Exposure
    WindExposed,             !- Wind Exposure
    ,                        !- View Factor to Ground
    4,                       !- Number of Vertices
    0,8.53595065189569,0,0,0,0,0,0,0.152439024390244,0,8.53595065189569,0.152439024390244;    
    
BuildingSurface:Detailed,
    BGWall_lower_sdl,                  !- Name
    Wall,                    !- Surface Type
    Crawl Wall,           !- Construction Name
    crawlspace_unit1,              !- Zone Name
    GroundSlabPreprocessorAverage,                !- Outside Boundary Condition
    ,                        !- Outside Boundary Condition Object
    NoSun,  !- Sun Exposure
    NoWind,  !- Wind Exposure
    ,                        !- View Factor to Ground
    4,                       !- Number of Vertices
    0,8.53595065189569,-0.457317073170732,0,0,-0.457317073170732,0,0,0,0,8.53595065189569,0;        

    
  BuildingSurface:Detailed,
    Extfloor_unit1,  !- Name
    Floor,  !- Surface Type
    Interior Floor,  !- Construction Name
    crawlspace_unit1,  !- Zone Name
    GroundSlabPreprocessorAverage,  !- Outside Boundary Condition
    ,  !- Outside Boundary Condition Object
    NoSun,  !- Sun Exposure
    NoWind,  !- Wind Exposure
    0.0,  !- View Factor to Ground
    4,  !- Number of Vertices
    0,0,-0.457317073170732,0,8.53595065189569,-0.457317073170732,17.0719013037914,8.53595065189569,-0.457317073170732,17.0719013037914,0,-0.457317073170732;

Door,
    Door_ldf_unit1,	!- Name
    Exterior Door,   	!- Construction Name
    Wall_ldf_1.unit1,	!- Building Surface Name
    1,		!- Multiplier
    0.5,	!- Starting X coordinate
    0,	!- Starting Z coordinate
    0.783855549654806,	!- Length
    2.13414634146341;	!- Height
    
Door,
    Door_ldb_unit1,	!- Name
    Exterior Door,   	!- Construction Name
    Wall_ldb_1.unit1,	!- Building Surface Name
    1,		!- Multiplier
    0.5,	!- Starting X coordinate
    0,	!- Starting Z coordinate
    0.783855549654806,	!- Length
    2.13414634146341;	!- Height
    












!-   ===========  ALL OBJECTS IN CLASS: SIMULATIONCONTROL ===========

SimulationControl,
    Yes,                     !- Do Zone Sizing Calculation
    Yes,                     !- Do System Sizing Calculation
    No,                      !- Do Plant Sizing Calculation
    Yes,                     !- Run Simulation for Sizing Periods
    Yes;                     !- Run Simulation for Weather File Run Periods
 
!-   ===========  ALL OBJECTS IN CLASS: BUILDING ===========

Building,
    DW_Miami_NOPR_gasfurnace,                	!- Name
    0,      	!- North Axis {deg}
    Suburbs,                 	!- Terrain
    0.04,                    	!- Loads Convergence Tolerance Value
    0.4,                     	!- Temperature Convergence Tolerance Value {deltaC}
    FullExterior, 		!- Solar Distribution
    25,                      	!- Maximum Number of Warmup Days
    6;                      	!- Minimum Number of Warmup Days

!-   ===========  ALL OBJECTS IN CLASS: SURFACECONVECTIONALGORITHM:INSIDE ===========

SurfaceConvectionAlgorithm:Inside,
    TARP;                  !- Algorithm
 
!-   ===========  ALL OBJECTS IN CLASS: TIMESTEP ===========

Timestep,
    4;                       !- Number of Timesteps per Hour

!-   ===========  ALL OBJECTS IN CLASS: SITE:LOCATION ===========

! Weather_file = USA_FL_Miami.Intl.AP.722020_TMY3.epw;

Site:WaterMainsTemperature,
Correlation,	!- Calculation method
, 		!- Temperature schedule name
24.4916666666667, !- Annual average outdoor air temperature {C}
8.7;	!- Maximum difference in monthly average outdoor air temperatures {C}



! Site:Location and design-day objects created by:
! /qfs/projects/BECP/bin/ddy2idf /qfs/projects/BECP/resstd/mh_rule_making/FY2022/web_posting_final_rulemaking_idf/idf_for_webposting/2021analysis_All_10Packages/epw/USA_FL_Miami.Intl.AP.722020_TMY3.ddy
!
Site:Location,
  Miami Intl Ap_FL_USA Design_Conditions,     !- Site:Location Name
      25.82,     !- Latitude {N+ S-}
     -80.30,     !- Longitude {W- E+}
      -5.00,     !- Time Zone Relative to GMT {GMT+/-}
      11.00;     !- Elevation {m}

SizingPeriod:DesignDay,
  Miami Intl Ap Ann Htg 99.6% Condns DB,     !- Name
          1,      !- Month
         21,      !- Day of Month
  WinterDesignDay,!- Day Type
        8.7,      !- Maximum Dry-Bulb Temperature {C}
        0.0,      !- Daily Dry-Bulb Temperature Range {C}
 DefaultMultipliers, !- Dry-Bulb Temperature Range Modifier Type
           ,      !- Dry-Bulb Temperature Range Modifier Schedule Name
    Wetbulb,      !- Humidity Condition Type
        8.7,      !- Wetbulb at Maximum Dry-Bulb {C}
           ,      !- Humidity Indicating Day Schedule Name
           ,      !- Humidity Ratio at Maximum Dry-Bulb {kgWater/kgDryAir}
           ,      !- Enthalpy at Maximum Dry-Bulb {J/kg}
           ,      !- Daily WetBulb Temperature Range {deltaC}
    101193.,      !- Barometric Pressure {Pa}
        3.8,      !- Wind Speed {m/s} design conditions vs. traditional 6.71 m/s (15 mph)
        340,      !- Wind Direction {Degrees; N=0, S=180}
         No,      !- Rain {Yes/No}
         No,      !- Snow on ground {Yes/No}
         No,      !- Daylight Savings Time Indicator
  ASHRAEClearSky, !- Solar Model Indicator
           ,      !- Beam Solar Day Schedule Name
           ,      !- Diffuse Solar Day Schedule Name
           ,      !- ASHRAE Clear Sky Optical Depth for Beam Irradiance (taub)
           ,      !- ASHRAE Clear Sky Optical Depth for Diffuse Irradiance (taud)
       0.00;      !- Clearness {0.0 to 1.1}

SizingPeriod:DesignDay,
  Miami Intl Ap Ann Clg .4% Condns DB=>MWB,     !- Name
          7,      !- Month
         21,      !- Day of Month
  SummerDesignDay,!- Day Type
       33.2,      !- Maximum Dry-Bulb Temperature {C}
        6.7,      !- Daily Dry-Bulb Temperature Range {C}
 DefaultMultipliers, !- Dry-Bulb Temperature Range Modifier Type
           ,      !- Dry-Bulb Temperature Range Modifier Schedule Name
    Wetbulb,      !- Humidity Condition Type
       25.3,      !- Wetbulb at Maximum Dry-Bulb {C}
           ,      !- Humidity Indicating Day Schedule Name
           ,      !- Humidity Ratio at Maximum Dry-Bulb {kgWater/kgDryAir}
           ,      !- Enthalpy at Maximum Dry-Bulb {J/kg}
           ,      !- Daily WetBulb Temperature Range {deltaC}
    101193.,      !- Barometric Pressure {Pa}
        4.5,      !- Wind Speed {m/s} design conditions vs. traditional 3.35 m/s (7mph)
        140,      !- Wind Direction {Degrees; N=0, S=180}
         No,      !- Rain {Yes/No}
         No,      !- Snow on ground {Yes/No}
         No,      !- Daylight Savings Time Indicator
       ASHRAETau, !- Solar Model Indicator
           ,      !- Beam Solar Day Schedule Name
           ,      !- Diffuse Solar Day Schedule Name
      0.528,      !- ASHRAE Clear Sky Optical Depth for Beam Irradiance (taub)
      1.905;      !- ASHRAE Clear Sky Optical Depth for Diffuse Irradiance (taud)
       

!-   ===========  ALL OBJECTS IN CLASS: RUNPERIOD ===========

RunPeriod,
    annual,                  !- Name
    1,                       !- Begin Month
    1,                       !- Begin Day of Month
    12,                      !- End Month
    31,                      !- End Day of Month
    UseWeatherFile,          !- Day of Week for Start Day
    Yes,                     !- Use Weather File Holidays and Special Days
    Yes,                     !- Use Weather File Daylight Saving Period
    No,                      !- Apply Weekend Holiday Rule
    Yes,                     !- Use Weather File Rain Indicators
    Yes,                     !- Use Weather File Snow Indicators
    1;                       !- Number of Times Runperiod to be Repeated
     

!-   ===========  ALL OBJECTS IN CLASS: SCHEDULETYPELIMITS ===========

ScheduleTypeLimits,
    any number;              !- Name

ScheduleTypeLimits,
    On/Off,                  !- Name
    0,                       !- Lower Limit Value
    1,                       !- Upper Limit Value
    Discrete;                !- Numeric Type

ScheduleTypeLimits,
    control_type,            !- Name
    0,                       !- Lower Limit Value
    4,                       !- Upper Limit Value
    Discrete;                !- Numeric Type

ScheduleTypeLimits,
    fraction,                !- Name
    0,                       !- Lower Limit Value
    1,                       !- Upper Limit Value
    Continuous;              !- Numeric Type
    
ScheduleTypeLimits,
    Temperature,             !- Name
    -60,                     !- Lower Limit Value
    200,                     !- Upper Limit Value
    Continuous;              !- Numeric Type


Schedule:Compact,
    BA_shower_sch,            !- Name
    any number,              !- Schedule Type Limits Name
    Through: 12/31,          !- Field 1
    For: AllDays,            !- Field 2
    Until: 1:00,0.00204836092592593,
    Until: 2:00,0.000931073148148148,
    Until: 3:00,0.000558643888888889,
    Until: 4:00,0.000931073148148148,
    Until: 5:00,0.00260700481481481,
    Until: 6:00,0.00968316074074074,
    Until: 7:00,0.0219733262962963,
    Until: 8:00,0.0217871116666667,
    Until: 9:00,0.0176903898148148,
    Until: 10:00,0.0137798825925926,
    Until: 11:00,0.0111728777777778,
    Until: 12:00,0.00875208759259259,
    Until: 13:00,0.00633129740740741,
    Until: 14:00,0.00540022425925926,
    Until: 15:00,0.00484158037037037,
    Until: 16:00,0.00465536574074074,
    Until: 17:00,0.00558643888888889,
    Until: 18:00,0.00726237055555555,
    Until: 19:00,0.00782101444444444,
    Until: 20:00,0.00782101444444444,
    Until: 21:00,0.00782101444444444,
    Until: 22:00,0.00763479981481481,
    Until: 23:00,0.00540022425925926,
    Until: 24:00,0.00391050722222222;


Schedule:Compact,
    BA_bath_sch,            !- Name
    any number,              !- Schedule Type Limits Name
    Through: 12/31,          !- Field 1
    For: AllDays,            !- Field 2
    Until: 1:00,0.000190650757575758,
    Until: 2:00,9.53253787878788e-05,
    Until: 3:00,9.53253787878788e-05,
    Until: 4:00,9.53253787878788e-05,
    Until: 5:00,0.000190650757575758,
    Until: 6:00,0.000452795549242424,
    Until: 7:00,0.00109624185606061,
    Until: 8:00,0.00138221799242424,
    Until: 9:00,0.00157286875,
    Until: 10:00,0.00138221799242424,
    Until: 11:00,0.00109624185606061,
    Until: 12:00,0.000834097064393939,
    Until: 13:00,0.000738771685606061,
    Until: 14:00,0.000548120928030303,
    Until: 15:00,0.000548120928030303,
    Until: 16:00,0.000548120928030303,
    Until: 17:00,0.000929422443181818,
    Until: 18:00,0.00109624185606061,
    Until: 19:00,0.00183501354166667,
    Until: 20:00,0.00238313446969697,
    Until: 21:00,0.00238313446969697,
    Until: 22:00,0.00183501354166667,
    Until: 23:00,0.00157286875,
    Until: 24:00,0.000929422443181818;
    
Schedule:Compact,
    BA_sink_sch,            !- Name
    any number,              !- Schedule Type Limits Name
    Through: 12/31,          !- Field 1
    For: AllDays,            !- Field 2
    Until: 1:00,0.00458879678362573,
    Until: 2:00,0.00229439839181287,
    Until: 3:00,0.00163885599415205,
    Until: 4:00,0.00163885599415205,
    Until: 5:00,0.00229439839181287,
    Until: 6:00,0.00589988157894737,
    Until: 7:00,0.0137663903508772,
    Until: 8:00,0.0203218143274854,
    Until: 9:00,0.021632899122807,
    Until: 10:00,0.0203218143274854,
    Until: 11:00,0.0176996447368421,
    Until: 12:00,0.0163885599415205,
    Until: 13:00,0.0160607887426901,
    Until: 14:00,0.0147497039473684,
    Until: 15:00,0.0140941615497076,
    Until: 16:00,0.0134386191520468,
    Until: 17:00,0.0157330175438597,
    Until: 18:00,0.0213051279239766,
    Until: 19:00,0.0245828399122807,
    Until: 20:00,0.0226162127192982,
    Until: 21:00,0.0186829583333333,
    Until: 22:00,0.0157330175438597,
    Until: 23:00,0.0131108479532164,
    Until: 24:00,0.00884982236842105;


Schedule:Day:Hourly,
    OccupancyDay,            !- Name
    Fraction,                !- Schedule Type Limits Name
    1.00000,                 !- Hour 1
    1.00000,                 !- Hour 2
    1.00000,                 !- Hour 3
    1.00000,                 !- Hour 4
    1.00000,                 !- Hour 5
    1.00000,                 !- Hour 6
    1.00000,                 !- Hour 7
    0.88310,                 !- Hour 8
    0.40861,                 !- Hour 9
    0.24189,                 !- Hour 10
    0.24189,                 !- Hour 11
    0.24189,                 !- Hour 12
    0.24189,                 !- Hour 13
    0.24189,                 !- Hour 14
    0.24189,                 !- Hour 15
    0.24189,                 !- Hour 16
    0.29498,                 !- Hour 17
    0.55310,                 !- Hour 18
    0.89693,                 !- Hour 19
    0.89693,                 !- Hour 20
    0.89693,                 !- Hour 21
    1.00000,                 !- Hour 22
    1.00000,                 !- Hour 23
    1.00000;                 !- Hour 24

Schedule:Day:Hourly,
    LightingDay,      !- Name
    Fraction,                !- Schedule Type Limits Name
    0.0625,                  !- Hour 1
    0.0625,                  !- Hour 2
    0.0625,                  !- Hour 3
    0.0625,                  !- Hour 4
    0.1875,                  !- Hour 5
    0.390625,                !- Hour 6
    0.4375,                  !- Hour 7
    0.390625,                !- Hour 8
    0.171875,                !- Hour 9
    0.1171875,               !- Hour 10
    0.1171875,               !- Hour 11
    0.1171875,               !- Hour 12
    0.1171875,               !- Hour 13
    0.1171875,               !- Hour 14
    0.1171875,               !- Hour 15
    0.203125,                !- Hour 16
    0.4375,                  !- Hour 17
    0.609375,                !- Hour 18
    0.8203125,               !- Hour 19
    0.984375,                !- Hour 20
    1,                       !- Hour 21
    0.6875,                  !- Hour 22
    0.3828125,               !- Hour 23
    0.15625;                 !- Hour 24



Schedule:Day:Hourly,
LightingDay_EELighting_OccSensors,!- Name,
Fraction,!- Schedule Type Limits Name
0.065170403,!- Hour 1
0.065170403,!- Hour 2
0.065170403,!- Hour 3
0.065170403,!- Hour 4
0.195511208,!- Hour 5
0.407315016,!- Hour 6
0.456192818,!- Hour 7
0.407315016,!- Hour 8
0.179218607,!- Hour 9
0.122194505,!- Hour 10
0.122194505,!- Hour 11
0.122194505,!- Hour 12
0.122194505,!- Hour 13
0.122194505,!- Hour 14
0.122194505,!- Hour 15
0.211803808,!- Hour 16
0.456192818,!- Hour 17
0.635411425,!- Hour 18
0.855361533,!- Hour 19
0.947933128,!- Hour 20
0.947933128,!- Hour 21
0.716874428,!- Hour 22
0.399168715,!- Hour 23
0.162926006;!- Hour 24

Schedule:Day:Hourly,
LightingDay_EELighting_Garage_OccSensors,!- Name
Fraction,!- Schedule Type Limits Name
0.048125,!- Hour 1
0.048125,!- Hour 2
0.048125,!- Hour 3
0.048125,!- Hour 4
0.144375,!- Hour 5
0.30078125,!- Hour 6
0.336875,!- Hour 7
0.30078125,!- Hour 8
0.13234375,!- Hour 9
0.090234375,!- Hour 10
0.090234375,!- Hour 11
0.090234375,!- Hour 12
0.090234375,!- Hour 13
0.090234375,!- Hour 14
0.090234375,!- Hour 15
0.15640625,!- Hour 16
0.336875,!- Hour 17
0.46921875,!- Hour 18
0.631640625,!- Hour 19
0.7,!- Hour 20
0.7,!- Hour 21
0.529375,!- Hour 22
0.294765625,!- Hour 23
0.1203125;!- Hour 24

Schedule:Day:Hourly,
    ExteriorLightingDay,      !- Name
    Fraction,                	!- Schedule Type Limits Name
    1,                  	!- Hour 1
    1,                  	!- Hour 2
    1,                  	!- Hour 3
    1,                  	!- Hour 4
    1,                  	!- Hour 5
    1,                		!- Hour 6
    0,                  	!- Hour 7
    0,                		!- Hour 8
    0,                		!- Hour 9
    0,               		!- Hour 10
    0,               		!- Hour 11
    0,              		!- Hour 12
    0,               		!- Hour 13
    0,               		!- Hour 14
    0,               		!- Hour 15
    0,                		!- Hour 16
    0,                  	!- Hour 17